8500Node/IEEE8500_VLN_Node.Txt

LINE-GROUND and LINE-LINE VOLTAGES BY BUS & NODE

Bus                  Node    VLN (kV)   Angle      pu     Base kV    Node-Node   VLL (kV)  Angle      pu

SOURCEBUS .......... 1       69.715 /_    0.0      1.05   115.000        1-2     120.75 /_   30.0      1.05
   -                 2       69.715 /_ -120.0      1.05   115.000        2-3     120.75 /_  -90.0      1.05
   -                 3       69.715 /_  120.0      1.05   115.000        3-1     120.75 /_  150.0      1.05
_HVMV_SUB_LSB ...... 1       7.5544 /_  -34.4    1.0493    12.470        1-2     13.062 /_   -4.4    1.0475
   -                 2       7.5434 /_ -154.2    1.0478    12.470        2-3     13.069 /_ -124.1     1.048
   -                 3        7.562 /_   86.0    1.0503    12.470        3-1     13.117 /_  115.7    1.0519
HVMV_SUB_48332 ..... 1       7.5544 /_  -34.4    1.0493    12.470        1-2     13.062 /_   -4.4    1.0475
   -                 2       7.5434 /_ -154.2    1.0478    12.470        2-3     13.069 /_ -124.1     1.048
   -                 3        7.562 /_   86.0    1.0503    12.470        3-1     13.117 /_  115.7    1.0519
M1009763 ........... 1       7.1967 /_  -44.9   0.99961    12.470        1-2     12.673 /_  -15.8    1.0163
   -                 2       7.2796 /_ -167.1    1.0111    12.470        2-3     12.281 /_ -133.4   0.98482
   -                 3       7.4186 /_   79.6    1.0304    12.470        3-1     12.933 /_  106.9    1.0371
L2673322 ........... 2       7.2795 /_ -167.1    1.0111    12.470
M1069148 ........... 3       7.4204 /_   80.5    1.0307    12.470
L2673309 ........... 3       7.4201 /_   80.5    1.0306    12.470
M1069588 ........... 2       7.2743 /_ -165.3    1.0104    12.470
L2804270 ........... 2       7.2743 /_ -165.3    1.0104    12.470
M3036164 ........... 2        7.148 /_ -166.9   0.99284    12.470
L2935553 ........... 2       7.1465 /_ -166.9   0.99263    12.470
M1209749 ........... 2       7.3843 /_ -156.5    1.0257    12.470
L2748840 ........... 2       7.3841 /_ -156.5    1.0256    12.470
M1108264 ........... 2       7.4333 /_ -160.4    1.0325    12.470
M1108263 ........... 2       7.4329 /_ -160.4    1.0324    12.470
L3085398 ........... 1       7.2434 /_  -44.9    1.0061    12.470        1-2     12.748 /_  -15.8    1.0223
   -                 2       7.3234 /_ -167.0    1.0172    12.470        2-3     12.333 /_ -133.4   0.98903
   -                 3       7.4297 /_   79.6     1.032    12.470        3-1     12.983 /_  107.0    1.0411
M1026891 ........... 1       7.2401 /_  -44.9    1.0056    12.470        1-2     12.741 /_  -15.8    1.0217
   -                 2       7.3171 /_ -167.0    1.0163    12.470        2-3     12.327 /_ -133.4   0.98849
   -                 3       7.4286 /_   79.6    1.0318    12.470        3-1     12.978 /_  107.0    1.0408
L3216367 ........... 1       7.3137 /_  -44.4    1.0159    12.470        1-2     12.783 /_  -15.5    1.0251
   -                 2       7.2861 /_ -166.6     1.012    12.470        2-3       12.3 /_ -133.5   0.98636
   -                 3       7.3672 /_   79.3    1.0233    12.470        3-1      12.94 /_  107.3    1.0377
M1069468 ........... 1        7.313 /_  -44.4    1.0158    12.470        1-2     12.781 /_  -15.5     1.025
   -                 2       7.2839 /_ -166.6    1.0117    12.470        2-3     12.297 /_ -133.5   0.98616
   -                 3       7.3665 /_   79.3    1.0232    12.470        3-1     12.938 /_  107.3    1.0375
M1142800 ........... 2       7.2097 /_ -159.0    1.0014    12.470
M1142799 ........... 2       7.2095 /_ -159.0    1.0014    12.470
M1047592 ........... 1       7.3625 /_  -44.5    1.0226    12.470        1-2     12.913 /_  -15.4    1.0355
   -                 2       7.4032 /_ -166.5    1.0283    12.470        2-3     12.458 /_ -133.3   0.99902
   -                 3       7.4625 /_   79.6    1.0365    12.470        3-1     13.099 /_  107.4    1.0505
P827512 ............ 3       7.4625 /_   79.6    1.0365    12.470
M1047339 ........... 1       7.2729 /_  -40.8    1.0102    12.470        1-2     12.615 /_  -11.3    1.0116
   -                 2       7.2316 /_ -161.6    1.0044    12.470        2-3     12.594 /_ -130.4      1.01
   -                 3       7.4244 /_   79.9    1.0312    12.470        3-1     12.772 /_  109.2    1.0242
P895104 ............ 1       7.2729 /_  -40.8    1.0102    12.470
M1026915 ........... 1       7.2418 /_  -44.9    1.0059    12.470        1-2     12.748 /_  -15.8    1.0223
   -                 2       7.3257 /_ -167.0    1.0175    12.470        2-3     12.335 /_ -133.5   0.98913
   -                 3       7.4287 /_   79.6    1.0318    12.470        3-1      12.98 /_  107.0    1.0409
M1026920 ........... 1       7.2397 /_  -44.9    1.0056    12.470        1-2     12.746 /_  -15.8    1.0221
   -                 2       7.3247 /_ -167.0    1.0174    12.470        2-3     12.333 /_ -133.5     0.989
   -                 3       7.4278 /_   79.6    1.0317    12.470        3-1     12.978 /_  107.0    1.0407
N1138596 ........... 1       7.2949 /_  -44.3    1.0132    12.470
L3254207 ........... 1       7.2944 /_  -44.3    1.0132    12.470
M1069464 ........... 1        7.312 /_  -44.4    1.0156    12.470        1-2     12.778 /_  -15.6    1.0247
   -                 2       7.2799 /_ -166.6    1.0112    12.470        2-3     12.293 /_ -133.5    0.9858
   -                 3       7.3651 /_   79.2     1.023    12.470        3-1     12.935 /_  107.3    1.0373
P873787 ............ 2       7.2799 /_ -166.6    1.0112    12.470
N1144665 ........... 1       7.3878 /_  -44.3    1.0261    12.470        1-2     12.943 /_  -15.2     1.038
   -                 2       7.4163 /_ -166.3    1.0301    12.470        2-3     12.475 /_ -133.2    1.0004
   -                 3       7.4547 /_   79.7    1.0354    12.470        3-1     13.107 /_  107.5    1.0511
M1047515 ........... 1       7.3825 /_  -44.3    1.0254    12.470        1-2     12.935 /_  -15.2    1.0373
   -                 2       7.4124 /_ -166.3    1.0296    12.470        2-3     12.468 /_ -133.2    0.9998
   -                 3         7.45 /_   79.7    1.0348    12.470        3-1     13.099 /_  107.5    1.0504
N1137002 ........... 1       7.3536 /_  -44.3    1.0214    12.470
M1047707 ........... 1       7.3533 /_  -44.3    1.0214    12.470
L2729406 ........... 3       7.2653 /_   81.3    1.0091    12.470
L2897768 ........... 3       7.2648 /_   81.3    1.0091    12.470
L3649301 ........... 1       7.3309 /_  -44.6    1.0182    12.470
L3649302 ........... 1       7.3305 /_  -44.6    1.0182    12.470
L2970842 ........... 2       7.4556 /_ -160.4    1.0356    12.470
M1089113 ........... 2       7.4542 /_ -160.4    1.0354    12.470
M1047312 ........... 1        7.239 /_  -40.8    1.0055    12.470        1-2     12.558 /_  -11.3     1.007
   -                 2       7.1956 /_ -161.7   0.99945    12.470        2-3     12.551 /_ -130.4    1.0065
   -                 3       7.4152 /_   79.9      1.03    12.470        3-1     12.735 /_  109.2    1.0212
P893163 ............ 1       7.2389 /_  -40.8    1.0055    12.470
L2822871 ........... 1       7.2757 /_  -44.8    1.0106    12.470        1-2       12.8 /_  -15.6    1.0265
   -                 2       7.3604 /_ -166.8    1.0223    12.470        2-3     12.381 /_ -133.4   0.99285
   -                 3       7.4391 /_   79.6    1.0333    12.470        3-1      13.02 /_  107.1    1.0441
M1026872 ........... 1       7.2731 /_  -44.8    1.0102    12.470        1-2     12.796 /_  -15.6    1.0262
   -                 2       7.3576 /_ -166.8     1.022    12.470        2-3     12.377 /_ -133.4   0.99255
   -                 3       7.4382 /_   79.6    1.0331    12.470        3-1     13.017 /_  107.1    1.0438
M1026312 ........... 2       7.0428 /_ -162.0   0.97823    12.470
L2973163 ........... 2       7.0401 /_ -162.0   0.97785    12.470
L3728038 ........... 1       7.3199 /_  -44.4    1.0167    12.470
L3728039 ........... 1       7.3194 /_  -44.4    1.0166    12.470
M1069567 ........... 2       7.2872 /_ -165.3    1.0122    12.470
M1069582 ........... 2       7.2781 /_ -165.3    1.0109    12.470
N1140830 ........... 1       7.1837 /_  -44.7    0.9978    12.470
L3216351 ........... 1       7.1836 /_  -44.7   0.99778    12.470
L2952007 ........... 3       7.3818 /_   84.8    1.0253    12.470
L2861158 ........... 3       7.3815 /_   84.8    1.0253    12.470
N1140827 ........... 1        7.189 /_  -44.6   0.99854    12.470        1-2     12.708 /_  -15.0    1.0191
   -                 2       7.3713 /_ -166.2    1.0239    12.470        2-3     12.322 /_ -133.3   0.98815
   -                 3       7.3212 /_   79.8    1.0169    12.470        3-1     12.837 /_  107.3    1.0295
M1026726 ........... 1       7.1889 /_  -44.6   0.99852    12.470        1-2     12.708 /_  -15.0    1.0191
   -                 2       7.3712 /_ -166.2    1.0238    12.470        2-3     12.322 /_ -133.3   0.98813
   -                 3       7.3211 /_   79.8    1.0169    12.470        3-1     12.837 /_  107.3    1.0295
L2730106 ........... 1       6.8317 /_  -41.0    0.9489    12.470        1-2     12.097 /_  -11.0   0.97008
   -                 2        7.062 /_ -162.0    0.9809    12.470        2-3     12.345 /_ -129.3   0.98997
   -                 3       7.4589 /_   81.5     1.036    12.470        3-1     12.533 /_  108.9     1.005
N1142099 ........... 1       6.8291 /_  -41.0   0.94854    12.470        1-2     12.094 /_  -11.0   0.96983
   -                 2       7.0608 /_ -162.1   0.98073    12.470        2-3     12.343 /_ -129.3   0.98979
   -                 3       7.4588 /_   81.5     1.036    12.470        3-1     12.531 /_  108.9    1.0049
M1026658 ........... 1       7.1819 /_  -44.7   0.99755    12.470        1-2       12.7 /_  -15.0    1.0184
   -                 2       7.3729 /_ -166.2    1.0241    12.470        2-3     12.314 /_ -133.4   0.98752
   -                 3       7.3068 /_   79.8    1.0149    12.470        3-1      12.82 /_  107.3     1.028
L3172805 ........... 1       7.1817 /_  -44.7   0.99753    12.470
P895112 ............ 1       7.1282 /_  -38.7   0.99008    12.470
L3048962 ........... 1       7.1281 /_  -38.7   0.99007    12.470
L2991914 ........... 1       7.3351 /_  -44.4    1.0188    12.470        1-2     12.867 /_  -15.2    1.0318
   -                 2       7.3855 /_ -166.3    1.0258    12.470        2-3     12.413 /_ -133.2   0.99541
   -                 3       7.4116 /_   79.7    1.0294    12.470        3-1     13.026 /_  107.5    1.0446
M1047503 ........... 1       7.3314 /_  -44.4    1.0183    12.470        1-2     12.863 /_  -15.2    1.0315
   -                 2       7.3852 /_ -166.3    1.0258    12.470        2-3     12.411 /_ -133.2   0.99523
   -                 3       7.4092 /_   79.7    1.0291    12.470        3-1     13.021 /_  107.5    1.0442
M1047751 ........... 1       7.3104 /_  -44.1    1.0154    12.470
L2973154 ........... 1       7.3104 /_  -44.1    1.0154    12.470
L3010565 ........... 3       7.4172 /_   80.4    1.0302    12.470
L2897775 ........... 3       7.4169 /_   80.4    1.0302    12.470
M1125955 ........... 3       7.4609 /_   82.1    1.0363    12.470
M1125957 ........... 3       7.4609 /_   82.1    1.0363    12.470
M1069640 ........... 2       7.2508 /_ -165.3    1.0071    12.470
L2804269 ........... 2       7.2501 /_ -165.3     1.007    12.470
M1026702 ........... 1       7.2129 /_  -44.6    1.0019    12.470        1-2     12.736 /_  -15.1    1.0213
   -                 2        7.375 /_ -166.2    1.0244    12.470        2-3     12.341 /_ -133.3   0.98963
   -                 3       7.3399 /_   79.8    1.0195    12.470        3-1     12.872 /_  107.3    1.0323
N1139551 ........... 1       7.2016 /_  -44.6    1.0003    12.470        1-2     12.724 /_  -15.0    1.0204
   -                 2       7.3745 /_ -166.2    1.0243    12.470        2-3     12.335 /_ -133.3   0.98914
   -                 3       7.3335 /_   79.8    1.0186    12.470        3-1     12.858 /_  107.3    1.0311
N1136355 ........... 2       7.3276 /_ -165.2    1.0178    12.470
L2783231 ........... 2       7.3203 /_ -165.2    1.0168    12.470
L2748143 ........... 1       7.2311 /_  -43.1    1.0044    12.470
L3251854 ........... 1        7.231 /_  -43.1    1.0044    12.470
M1069610 ........... 2       7.2618 /_ -165.3    1.0086    12.470
M1069600 ........... 2       7.2617 /_ -165.3    1.0086    12.470
M1069424 ........... 1       7.3039 /_  -44.3    1.0145    12.470        1-2     12.752 /_  -15.7    1.0227
   -                 2       7.2494 /_ -166.7    1.0069    12.470        2-3     12.259 /_ -133.5   0.98308
   -                 3       7.3549 /_   79.1    1.0216    12.470        3-1      12.91 /_  107.3    1.0353
L2935549 ........... 1       7.3028 /_  -44.3    1.0143    12.470        1-2     12.749 /_  -15.7    1.0224
   -                 2       7.2453 /_ -166.7    1.0063    12.470        2-3     12.254 /_ -133.5   0.98271
   -                 3       7.3537 /_   79.1    1.0214    12.470        3-1     12.907 /_  107.3    1.0351
P895089 ............ 3       7.5086 /_   80.6    1.0429    12.470
L3235242 ........... 3       7.5083 /_   80.6    1.0429    12.470
M1026795 ........... 1       7.2958 /_  -44.5    1.0134    12.470        1-2     12.825 /_  -15.2    1.0284
   -                 2       7.3826 /_ -166.2    1.0254    12.470        2-3     12.389 /_ -133.2   0.99352
   -                 3       7.3872 /_   79.7    1.0261    12.470        3-1     12.975 /_  107.4    1.0405
N1140522 ........... 3       7.3871 /_   79.7    1.0261    12.470
L3030199 ........... 1       7.1731 /_  -38.7   0.99633    12.470        1-2     12.478 /_   -8.8    1.0006
   -                 2       7.2111 /_ -159.0    1.0016    12.470        2-3     12.619 /_ -127.9    1.0119
   -                 3       7.4453 /_   82.1    1.0341    12.470        3-1     12.713 /_  111.1    1.0195
M1125934 ........... 1       7.1732 /_  -38.7   0.99633    12.470        1-2     12.477 /_   -8.8    1.0005
   -                 2       7.2102 /_ -159.0    1.0015    12.470        2-3     12.618 /_ -127.9    1.0119
   -                 3       7.4447 /_   82.1     1.034    12.470        3-1     12.712 /_  111.1    1.0194
M1069189 ........... 1       7.4294 /_  -40.2    1.0319    12.470        1-2     12.878 /_  -10.5    1.0327
   -                 2       7.4052 /_ -160.6    1.0286    12.470        2-3     12.782 /_ -130.0     1.025
   -                 3       7.4359 /_   80.4    1.0328    12.470        3-1     12.913 /_  110.1    1.0355
L2860487 ........... 3       7.4357 /_   80.4    1.0328    12.470
221-312488 ......... 1       6.8683 /_  -40.4   0.95399    12.470        1-2     12.125 /_  -10.5   0.97235
   -                 2       7.0611 /_ -161.5   0.98077    12.470        2-3     12.361 /_ -128.9   0.99126
   -                 3       7.4508 /_   81.8    1.0349    12.470        3-1     12.539 /_  109.4    1.0055
M1089183 ........... 1       6.8683 /_  -40.4   0.95398    12.470        1-2     12.125 /_  -10.5   0.97235
   -                 2       7.0611 /_ -161.5   0.98077    12.470        2-3     12.361 /_ -128.9   0.99126
   -                 3       7.4508 /_   81.8    1.0349    12.470        3-1     12.539 /_  109.4    1.0055
M1108464 ........... 2       7.0587 /_ -161.5   0.98044    12.470
L3102286 ........... 2       7.0582 /_ -161.5   0.98037    12.470
F739845 ............ 1        7.222 /_  -40.7    1.0031    12.470        1-2     12.523 /_  -11.3    1.0043
   -                 2       7.1689 /_ -161.7   0.99574    12.470        2-3     12.521 /_ -130.3    1.0041
   -                 3       7.4098 /_   79.9    1.0292    12.470        3-1     12.715 /_  109.2    1.0196
293471 ............. 1       7.2219 /_  -40.7    1.0031    12.470        1-2     12.523 /_  -11.3    1.0043
   -                 2       7.1688 /_ -161.7   0.99573    12.470        2-3      12.52 /_ -130.3     1.004
   -                 3       7.4097 /_   79.9    1.0292    12.470        3-1     12.714 /_  109.2    1.0196
P827499 ............ 1       7.3016 /_  -44.3    1.0142    12.470
N1139254 ........... 1       7.3016 /_  -44.3    1.0142    12.470
M1026657 ........... 1       7.1785 /_  -44.7   0.99707    12.470
M1026656 ........... 1       7.1782 /_  -44.7   0.99704    12.470
M1108299 ........... 2       7.1791 /_ -159.4   0.99716    12.470
M1108300 ........... 2       7.1791 /_ -159.4   0.99716    12.470
L3198355 ........... 2       7.1787 /_ -159.4    0.9971    12.470
L2805037 ........... 2       7.1787 /_ -159.4    0.9971    12.470
N1137994 ........... 3       7.3721 /_   79.3     1.024    12.470
M1069484 ........... 3       7.3707 /_   79.3    1.0238    12.470
L2860504 ........... 1       7.1847 /_  -44.7   0.99794    12.470
L2860493 ........... 1        7.184 /_  -44.7   0.99784    12.470
M1026783 ........... 1       7.2848 /_  -44.5    1.0118    12.470        1-2     12.813 /_  -15.1    1.0275
   -                 2       7.3817 /_ -166.2    1.0253    12.470        2-3     12.383 /_ -133.3   0.99302
   -                 3       7.3812 /_   79.7    1.0252    12.470        3-1     12.962 /_  107.4    1.0395
M1026780 ........... 1       7.2831 /_  -44.5    1.0116    12.470        1-2     12.811 /_  -15.1    1.0274
   -                 2       7.3815 /_ -166.2    1.0253    12.470        2-3     12.382 /_ -133.3   0.99294
   -                 3       7.3802 /_   79.7    1.0251    12.470        3-1      12.96 /_  107.4    1.0393
P895111 ............ 3       7.4642 /_   82.4    1.0368    12.470
L2895496 ........... 3       7.4638 /_   82.4    1.0367    12.470
N1140819 ........... 1       7.1934 /_  -44.6   0.99914    12.470        1-2     12.714 /_  -15.0    1.0196
   -                 2       7.3723 /_ -166.2     1.024    12.470        2-3     12.327 /_ -133.3    0.9885
   -                 3       7.3257 /_   79.8    1.0175    12.470        3-1     12.845 /_  107.3    1.0301
M1026700 ........... 1       7.1922 /_  -44.6   0.99898    12.470        1-2     12.712 /_  -15.0    1.0194
   -                 2        7.372 /_ -166.2    1.0239    12.470        2-3     12.325 /_ -133.3   0.98839
   -                 3       7.3244 /_   79.8    1.0173    12.470        3-1     12.843 /_  107.3    1.0299
M1089173 ........... 3       7.2681 /_   81.3    1.0095    12.470
L2935551 ........... 3       7.2671 /_   81.3    1.0094    12.470
M1026344 ........... 1       7.1762 /_  -40.7   0.99675    12.470
M1026364 ........... 1       7.1758 /_  -40.7   0.99671    12.470
L2879070 ........... 1       7.3505 /_  -44.6     1.021    12.470        1-2     12.898 /_  -15.4    1.0343
   -                 2        7.399 /_ -166.5    1.0277    12.470        2-3     12.449 /_ -133.3   0.99829
   -                 3       7.4589 /_   79.6     1.036    12.470        3-1     13.089 /_  107.3    1.0496
L3216345 ........... 1       7.3424 /_  -44.6    1.0198    12.470        1-2     12.888 /_  -15.5    1.0335
   -                 2       7.3964 /_ -166.5    1.0273    12.470        2-3     12.443 /_ -133.3   0.99782
   -                 3       7.4569 /_   79.7    1.0358    12.470        3-1     13.082 /_  107.3    1.0491
M1069428 ........... 1        7.305 /_  -44.3    1.0146    12.470        1-2     12.756 /_  -15.6    1.0229
   -                 2       7.2529 /_ -166.7    1.0074    12.470        2-3     12.263 /_ -133.5   0.98339
   -                 3        7.356 /_   79.1    1.0217    12.470        3-1     12.913 /_  107.3    1.0355
N1139257 ........... 2       7.2529 /_ -166.7    1.0074    12.470
L2991919 ........... 1       7.1721 /_  -40.7   0.99619    12.470
M1026361 ........... 1       7.1696 /_  -40.7   0.99583    12.470
N1147857 ........... 1       7.1967 /_  -44.9    0.9996    12.470
M1009742 ........... 1       7.1949 /_  -44.9   0.99936    12.470
Q14412 ............. 1       7.2638 /_  -40.8    1.0089    12.470        1-2       12.6 /_  -11.3    1.0104
   -                 2       7.2221 /_ -161.6    1.0031    12.470        2-3     12.583 /_ -130.4     1.009
   -                 3       7.4221 /_   79.9    1.0309    12.470        3-1     12.762 /_  109.2    1.0234
M1047325 ........... 1       7.2612 /_  -40.8    1.0086    12.470        1-2     12.595 /_  -11.3      1.01
   -                 2       7.2195 /_ -161.6    1.0028    12.470        2-3      12.58 /_ -130.4    1.0088
   -                 3       7.4214 /_   79.9    1.0308    12.470        3-1     12.759 /_  109.2    1.0232
N1139263 ........... 1        7.313 /_  -44.4    1.0158    12.470
L3048227 ........... 1       7.3129 /_  -44.4    1.0157    12.470
P827506 ............ 1        7.313 /_  -44.4    1.0158    12.470
M1069469 ........... 1        7.313 /_  -44.4    1.0158    12.470
M1027019 ........... 2       7.2883 /_ -167.0    1.0123    12.470
L2785522 ........... 2       7.2881 /_ -167.0    1.0123    12.470
L3216338 ........... 2       7.2288 /_ -167.2    1.0041    12.470
L2973146 ........... 2       7.2287 /_ -167.2     1.004    12.470
M3037452 ........... 1       7.1621 /_  -40.7    0.9948    12.470
L2973164 ........... 1        7.162 /_  -40.7   0.99479    12.470
L3120376 ........... 1       7.2874 /_  -44.8    1.0122    12.470
M1026925 ........... 1       7.2857 /_  -44.8     1.012    12.470
M1047612 ........... 3       7.4704 /_   79.7    1.0376    12.470
P828360 ............ 3       7.4703 /_   79.7    1.0376    12.470
M1089195 ........... 3       7.5081 /_   80.6    1.0429    12.470
L3141393 ........... 3       7.5079 /_   80.6    1.0428    12.470
M1026946 ........... 2       7.3045 /_ -167.0    1.0146    12.470
M1026940 ........... 2        7.304 /_ -167.0    1.0145    12.470
M1047471 ........... 2        7.108 /_ -167.1   0.98728    12.470
L3216349 ........... 2        7.108 /_ -167.1   0.98728    12.470
M1047401 ........... 1       7.1282 /_  -44.8   0.99009    12.470
L2748132 ........... 1       7.1281 /_  -44.8   0.99008    12.470
L3122820 ........... 1       7.1577 /_  -44.7   0.99418    12.470
L3141398 ........... 1       7.1576 /_  -44.7   0.99418    12.470
M1108360 ........... 3       7.3414 /_   81.5    1.0197    12.470
L3048968 ........... 3       7.3412 /_   81.5    1.0197    12.470
L2801950 ........... 3       7.3976 /_   80.4    1.0275    12.470
M1069224 ........... 3        7.397 /_   80.4    1.0274    12.470
L2766746 ........... 3       7.3515 /_   79.5    1.0211    12.470
M1027073 ........... 3       7.3494 /_   79.5    1.0208    12.470
M1142873 ........... 3       7.4636 /_   82.4    1.0367    12.470
M1069181 ........... 1       7.3887 /_  -40.3    1.0263    12.470
L2973151 ........... 1       7.3871 /_  -40.3     1.026    12.470
L3179682 ........... 3       7.4234 /_   81.6    1.0311    12.470
L2786274 ........... 3       7.4233 /_   81.6    1.0311    12.470
L3066816 ........... 1       7.1827 /_  -44.7   0.99766    12.470
M1026667 ........... 1       7.1823 /_  -44.7    0.9976    12.470
M1108529 ........... 1       7.4246 /_  -41.7    1.0313    12.470        1-2     12.968 /_  -12.2    1.0399
   -                 2       7.4566 /_ -162.9    1.0357    12.470        2-3     12.679 /_ -130.7    1.0167
   -                 3       7.5042 /_   81.2    1.0423    12.470        3-1     13.112 /_  109.6    1.0515
M1108532 ........... 1       7.4222 /_  -41.7    1.0309    12.470        1-2     12.965 /_  -12.2    1.0397
   -                 2       7.4551 /_ -162.9    1.0355    12.470        2-3     12.677 /_ -130.8    1.0166
   -                 3       7.5043 /_   81.2    1.0423    12.470        3-1      13.11 /_  109.6    1.0514
L2766723 ........... 1       7.1838 /_  -44.7   0.99781    12.470
L3122822 ........... 1       7.1837 /_  -44.7   0.99779    12.470
L2673312 ........... 1       7.1847 /_  -44.9   0.99794    12.470
L3235247 ........... 1       7.1845 /_  -44.9   0.99791    12.470
M1166391 ........... 3       7.3966 /_   84.8    1.0274    12.470
L3254873 ........... 3       7.3926 /_   84.8    1.0268    12.470
L2861157 ........... 3       7.4357 /_   84.9    1.0328    12.470
P901951 ............ 3        7.432 /_   84.9    1.0323    12.470
M1047346 ........... 1       7.2872 /_  -40.8    1.0122    12.470        1-2     12.637 /_  -11.3    1.0134
   -                 2       7.2446 /_ -161.6    1.0063    12.470        2-3      12.61 /_ -130.4    1.0112
   -                 3       7.4277 /_   79.9    1.0317    12.470        3-1     12.786 /_  109.3    1.0254
M1047345 ........... 1       7.2834 /_  -40.8    1.0116    12.470        1-2     12.631 /_  -11.3    1.0129
   -                 2       7.2414 /_ -161.6    1.0058    12.470        2-3     12.606 /_ -130.4    1.0109
   -                 3       7.4268 /_   79.9    1.0316    12.470        3-1     12.782 /_  109.2    1.0251
L2989596 ........... 2       7.2964 /_ -165.2    1.0135    12.470
L2822873 ........... 2       7.2963 /_ -165.2    1.0134    12.470
M1108328 ........... 3       7.3997 /_   81.6    1.0278    12.470
L2875754 ........... 3       7.3997 /_   81.6    1.0278    12.470
L2786204 ........... 3       7.4979 /_   85.0    1.0414    12.470
M1209819 ........... 3       7.4936 /_   85.0    1.0408    12.470
P901972 ............ 1       7.1946 /_  -44.9   0.99931    12.470
M1009726 ........... 1       7.1918 /_  -44.9   0.99892    12.470
M1047702 ........... 1       7.3537 /_  -44.3    1.0214    12.470
N1137001 ........... 1       7.3537 /_  -44.3    1.0214    12.470
L2767340 ........... 1       6.9271 /_  -40.2   0.96215    12.470        1-2     12.208 /_  -10.2   0.97902
   -                 2       7.1066 /_ -161.1   0.98709    12.470        2-3     12.426 /_ -128.8   0.99647
   -                 3         7.46 /_   81.8    1.0362    12.470        3-1     12.588 /_  109.6    1.0095
M3037449 ........... 1       6.9271 /_  -40.2   0.96215    12.470        1-2     12.208 /_  -10.2   0.97902
   -                 2       7.1066 /_ -161.1   0.98709    12.470        2-3     12.426 /_ -128.8   0.99647
   -                 3         7.46 /_   81.8    1.0362    12.470        3-1     12.588 /_  109.6    1.0095
M1047457 ........... 2       7.1159 /_ -167.1   0.98838    12.470
L2710546 ........... 2        7.115 /_ -167.1   0.98826    12.470
L2674027 ........... 1       6.7672 /_  -41.5   0.93994    12.470        1-2      12.02 /_  -11.5   0.96393
   -                 2       7.0289 /_ -162.7    0.9763    12.470        2-3     12.287 /_ -129.6   0.98534
   -                 3       7.4582 /_   81.3    1.0359    12.470        3-1     12.494 /_  108.4     1.002
L2692633 ........... 1         6.76 /_  -41.6   0.93894    12.470        1-2     12.011 /_  -11.6   0.96323
   -                 2       7.0249 /_ -162.8   0.97573    12.470        2-3      12.28 /_ -129.7    0.9848
   -                 3       7.4581 /_   81.3    1.0359    12.470        3-1      12.49 /_  108.3    1.0016
N1142108 ........... 1       7.1741 /_  -38.9   0.99646    12.470
L2674051 ........... 1        7.174 /_  -38.9   0.99645    12.470
M1069135 ........... 1       7.3118 /_  -40.7    1.0156    12.470        1-2     12.675 /_  -11.2    1.0165
   -                 2       7.2658 /_ -161.5    1.0092    12.470        2-3     12.637 /_ -130.4    1.0134
   -                 3       7.4343 /_   79.9    1.0326    12.470        3-1     12.812 /_  109.3    1.0274
R18242 ............. 1       7.3067 /_  -40.8    1.0149    12.470        1-2     12.668 /_  -11.3    1.0159
   -                 2       7.2618 /_ -161.6    1.0086    12.470        2-3     12.632 /_ -130.4     1.013
   -                 3       7.4338 /_   79.9    1.0325    12.470        3-1     12.808 /_  109.3    1.0271
M1047534 ........... 1       7.4712 /_  -44.1    1.0377    12.470        1-2     13.071 /_  -15.1    1.0482
   -                 2       7.4792 /_ -166.1    1.0388    12.470        2-3     12.581 /_ -133.0    1.0089
   -                 3       7.5114 /_   79.8    1.0433    12.470        3-1     13.226 /_  107.8    1.0606
N1136663 ........... 1       7.4496 /_  -44.2    1.0347    12.470        1-2     13.039 /_  -15.1    1.0456
   -                 2       7.4627 /_ -166.1    1.0365    12.470        2-3     12.555 /_ -133.1    1.0068
   -                 3       7.4997 /_   79.8    1.0417    12.470        3-1     13.198 /_  107.7    1.0584
M1108508 ........... 3       7.5051 /_   81.0    1.0424    12.470
L3097861 ........... 3        7.505 /_   81.0    1.0424    12.470
M1069560 ........... 2       7.2924 /_ -165.2    1.0129    12.470
L2973153 ........... 1       7.3645 /_  -44.3    1.0229    12.470        1-2     12.883 /_  -15.4    1.0331
   -                 2       7.3524 /_ -166.5    1.0212    12.470        2-3     12.422 /_ -133.1   0.99614
   -                 3       7.4725 /_   79.7    1.0379    12.470        3-1     13.099 /_  107.4    1.0504
N1136998 ........... 1        7.364 /_  -44.3    1.0228    12.470        1-2     12.882 /_  -15.4     1.033
   -                 2       7.3511 /_ -166.5     1.021    12.470        2-3     12.421 /_ -133.1   0.99605
   -                 3       7.4726 /_   79.7    1.0379    12.470        3-1     13.099 /_  107.4    1.0504
L2898515 ........... 3       7.4896 /_   83.6    1.0403    12.470
M1166387 ........... 3       7.4894 /_   83.6    1.0403    12.470
M1047442 ........... 2       7.1461 /_ -167.0   0.99257    12.470
L3235250 ........... 2        7.146 /_ -167.0   0.99256    12.470
M1142871 ........... 1       7.0985 /_  -38.9   0.98596    12.470        1-2     12.413 /_   -9.0   0.99544
   -                 2       7.1994 /_ -159.4   0.99997    12.470        2-3     12.581 /_ -127.9    1.0089
   -                 3       7.4645 /_   82.4    1.0368    12.470        3-1     12.698 /_  110.9    1.0182
M1142874 ........... 1       7.0933 /_  -39.0   0.98524    12.470        1-2     12.407 /_   -9.0   0.99492
   -                 2       7.1964 /_ -159.5   0.99956    12.470        2-3     12.576 /_ -127.9    1.0085
   -                 3       7.4642 /_   82.4    1.0368    12.470        3-1     12.694 /_  110.9     1.018
L2955081 ........... 1       7.1746 /_  -38.9   0.99653    12.470        1-2     12.456 /_   -9.1   0.99888
   -                 2       7.1864 /_ -159.2   0.99817    12.470        2-3     12.596 /_ -128.2    1.0101
   -                 3       7.4258 /_   81.7    1.0314    12.470        3-1     12.684 /_  110.8    1.0172
M1108315 ........... 1       7.1749 /_  -39.0   0.99658    12.470        1-2     12.454 /_   -9.1    0.9987
   -                 2       7.1837 /_ -159.3    0.9978    12.470        2-3     12.593 /_ -128.3    1.0099
   -                 3       7.4236 /_   81.6    1.0311    12.470        3-1     12.681 /_  110.8    1.0169
L2973162 ........... 1       7.1762 /_  -40.7   0.99676    12.470        1-2     12.436 /_  -11.4   0.99726
   -                 2       7.1003 /_ -161.9   0.98622    12.470        2-3     12.457 /_ -130.2   0.99892
   -                 3        7.417 /_   80.0    1.0302    12.470        3-1      12.68 /_  109.1    1.0168
M1026333 ........... 1       7.1756 /_  -40.7   0.99668    12.470        1-2     12.433 /_  -11.5   0.99703
   -                 2       7.0966 /_ -161.9    0.9857    12.470        2-3     12.454 /_ -130.2   0.99869
   -                 3       7.4179 /_   80.0    1.0303    12.470        3-1      12.68 /_  109.1    1.0168
M1009832 ........... 2       7.2372 /_ -167.2    1.0052    12.470
L2860479 ........... 2       7.2372 /_ -167.2    1.0052    12.470
M1026854 ........... 1       7.3025 /_  -44.7    1.0143    12.470        1-2     12.838 /_  -15.5    1.0295
   -                 2       7.3804 /_ -166.7    1.0251    12.470        2-3     12.411 /_ -133.3   0.99526
   -                 3       7.4467 /_   79.7    1.0343    12.470        3-1     13.047 /_  107.2    1.0463
P901894 ............ 1       7.3023 /_  -44.7    1.0143    12.470
M1026485 ........... 2       7.2006 /_ -161.7    1.0001    12.470
M1026492 ........... 2       7.2003 /_ -161.7    1.0001    12.470
D6413567-3_INT ..... 1       7.4106 /_  -40.2    1.0293    12.470        1-2      12.85 /_  -10.5    1.0304
   -                 2       7.3891 /_ -160.8    1.0263    12.470        2-3     12.763 /_ -130.1    1.0235
   -                 3       7.4343 /_   80.4    1.0326    12.470        3-1     12.897 /_  110.0    1.0342
E182724 ............ 1       7.4105 /_  -40.2    1.0293    12.470        1-2     12.849 /_  -10.5    1.0304
   -                 2       7.3891 /_ -160.8    1.0263    12.470        2-3     12.763 /_ -130.1    1.0235
   -                 3       7.4343 /_   80.4    1.0326    12.470        3-1     12.897 /_  110.0    1.0342
N1139541 ........... 1       7.4125 /_  -40.2    1.0296    12.470        1-2     12.852 /_  -10.5    1.0307
   -                 2       7.3908 /_ -160.7    1.0266    12.470        2-3     12.765 /_ -130.1    1.0237
   -                 3       7.4345 /_   80.4    1.0326    12.470        3-1     12.898 /_  110.0    1.0343
M4122658 ........... 1       6.8528 /_  -40.8   0.95183    12.470        1-2     12.122 /_  -10.8   0.97208
   -                 2       7.0722 /_ -161.8   0.98231    12.470        2-3     12.363 /_ -129.2   0.99144
   -                 3       7.4595 /_   81.6    1.0361    12.470        3-1     12.546 /_  109.1    1.0061
L2933135 ........... 1       6.8526 /_  -40.8    0.9518    12.470        1-2     12.122 /_  -10.8   0.97206
   -                 2       7.0721 /_ -161.8    0.9823    12.470        2-3     12.363 /_ -129.2   0.99142
   -                 3       7.4595 /_   81.6    1.0361    12.470        3-1     12.545 /_  109.1    1.0061
L2729414 ........... 1       7.2128 /_  -44.6    1.0018    12.470        1-2     12.736 /_  -15.1    1.0213
   -                 2        7.375 /_ -166.2    1.0244    12.470        2-3     12.341 /_ -133.3   0.98962
   -                 3       7.3399 /_   79.8    1.0195    12.470        3-1     12.872 /_  107.3    1.0322
L2729430 ........... 2       7.2743 /_ -167.1    1.0104    12.470
L2766742 ........... 2       7.2673 /_ -167.1    1.0094    12.470
M1026972 ........... 2         7.15 /_ -166.9   0.99311    12.470
L2860483 ........... 2       7.1497 /_ -166.9   0.99308    12.470
L2860490 ........... 1       7.2968 /_  -40.8    1.0135    12.470        1-2     12.652 /_  -11.3    1.0146
   -                 2       7.2532 /_ -161.6    1.0075    12.470        2-3     12.621 /_ -130.4    1.0121
   -                 3       7.4306 /_   79.9    1.0321    12.470        3-1     12.797 /_  109.3    1.0262
L3104134 ........... 1       7.2912 /_  -40.8    1.0127    12.470        1-2     12.643 /_  -11.3    1.0139
   -                 2       7.2482 /_ -161.6    1.0068    12.470        2-3     12.615 /_ -130.4    1.0116
   -                 3       7.4288 /_   79.9    1.0318    12.470        3-1     12.791 /_  109.3    1.0257
M1089144 ........... 1       7.0362 /_  -39.6   0.97731    12.470
P827522 ............ 1       7.0362 /_  -39.6    0.9773    12.470
M1089118 ........... 1       7.4703 /_  -40.0    1.0376    12.470        1-2     12.949 /_  -10.3    1.0384
   -                 2        7.448 /_ -160.4    1.0345    12.470        2-3     12.845 /_ -129.9    1.0301
   -                 3       7.4644 /_   80.6    1.0368    12.470        3-1     12.974 /_  110.3    1.0404
L3048208 ........... 1       7.4703 /_  -40.0    1.0376    12.470
M1108505 ........... 1       6.7864 /_  -41.4   0.94261    12.470        1-2     12.043 /_  -11.3   0.96578
   -                 2       7.0399 /_ -162.5   0.97782    12.470        2-3     12.305 /_ -129.5   0.98679
   -                 3       7.4581 /_   81.4    1.0359    12.470        3-1     12.506 /_  108.5    1.0029
L2955047 ........... 1       6.7805 /_  -41.4   0.94179    12.470        1-2     12.036 /_  -11.4   0.96521
   -                 2       7.0365 /_ -162.6   0.97736    12.470        2-3       12.3 /_ -129.6   0.98635
   -                 3       7.4581 /_   81.4    1.0359    12.470        3-1     12.503 /_  108.5    1.0026
M1089148 ........... 1       7.0332 /_  -39.6    0.9769    12.470
L2766721 ........... 1       7.0331 /_  -39.6   0.97688    12.470
M1026745 ........... 2       7.1043 /_ -167.1   0.98676    12.470
L3029183 ........... 2       7.1042 /_ -167.1   0.98675    12.470
L2710512 ........... 2       7.1211 /_ -167.0    0.9891    12.470
M1047828 ........... 2       7.1167 /_ -167.0   0.98849    12.470
M1047342 ........... 1       7.2828 /_  -40.8    1.0116    12.470
L3197645 ........... 1       7.2827 /_  -40.8    1.0115    12.470
M1069192 ........... 1       7.3934 /_  -40.3    1.0269    12.470
L3235253 ........... 1       7.3933 /_  -40.3    1.0269    12.470
L3214071 ........... 1       7.0177 /_  -39.5   0.97474    12.470        1-2     12.315 /_   -9.6   0.98758
   -                 2       7.1539 /_ -160.2   0.99366    12.470        2-3     12.507 /_ -128.3     1.003
   -                 3       7.4614 /_   82.1    1.0364    12.470        3-1     12.644 /_  110.3    1.0139
M1125952 ........... 1       7.0103 /_  -39.6   0.97372    12.470        1-2     12.306 /_   -9.6   0.98687
   -                 2       7.1498 /_ -160.3   0.99309    12.470        2-3       12.5 /_ -128.4    1.0024
   -                 3       7.4611 /_   82.1    1.0363    12.470        3-1     12.639 /_  110.3    1.0136
M1027101 ........... 2       7.1176 /_ -167.0   0.98862    12.470
L2860480 ........... 2       7.1173 /_ -167.0   0.98858    12.470
L2710517 ........... 1       7.1597 /_  -44.7   0.99446    12.470
M1026646 ........... 1       7.1583 /_  -44.7   0.99426    12.470
M1069662 ........... 2       7.2495 /_ -165.3    1.0069    12.470
L2935547 ........... 2       7.2494 /_ -165.3    1.0069    12.470
M1026931 ........... 1       7.2808 /_  -44.8    1.0113    12.470
L3216336 ........... 1       7.2803 /_  -44.8    1.0112    12.470
L3142049 ........... 1       6.8184 /_  -41.1   0.94706    12.470        1-2     12.081 /_  -11.1   0.96881
   -                 2       7.0556 /_ -162.2      0.98    12.470        2-3     12.333 /_ -129.4   0.98904
   -                 3       7.4586 /_   81.5     1.036    12.470        3-1     12.525 /_  108.8    1.0044
M1108493 ........... 1       6.8087 /_  -41.2   0.94571    12.470        1-2      12.07 /_  -11.2   0.96789
   -                 2       7.0508 /_ -162.3   0.97933    12.470        2-3     12.325 /_ -129.4   0.98835
   -                 3       7.4584 /_   81.5     1.036    12.470        3-1     12.519 /_  108.7     1.004
M1069169 ........... 1       7.3986 /_  -40.3    1.0276    12.470        1-2     12.831 /_  -10.6     1.029
   -                 2       7.3789 /_ -160.8    1.0249    12.470        2-3     12.752 /_ -130.1    1.0226
   -                 3       7.4334 /_   80.3    1.0325    12.470        3-1     12.886 /_  110.0    1.0334
L3010556 ........... 1       7.3917 /_  -40.3    1.0267    12.470        1-2     12.819 /_  -10.6     1.028
   -                 2       7.3702 /_ -160.9    1.0237    12.470        2-3     12.743 /_ -130.1    1.0219
   -                 3       7.4329 /_   80.3    1.0324    12.470        3-1      12.88 /_  109.9    1.0329
L2991933 ........... 3       7.4188 /_   79.6    1.0305    12.470
L3122837 ........... 3       7.4181 /_   79.6    1.0304    12.470
L2691936 ........... 1       7.2798 /_  -44.8    1.0111    12.470
L2897772 ........... 1       7.2329 /_  -40.8    1.0046    12.470
L3101814 ........... 1       7.2329 /_  -40.8    1.0046    12.470
L2766732 ........... 2       7.2008 /_ -161.7    1.0002    12.470
L2989564 ........... 2       7.2498 /_ -165.3     1.007    12.470
M1126016 ........... 1       6.7711 /_  -41.4   0.94049    12.470
L3120534 ........... 1       6.7708 /_  -41.4   0.94044    12.470
M1026330 ........... 1       7.1747 /_  -40.7   0.99655    12.470        1-2     12.427 /_  -11.5   0.99659
   -                 2       7.0893 /_ -161.9   0.98468    12.470        2-3     12.448 /_ -130.2   0.99825
   -                 3       7.4197 /_   80.0    1.0306    12.470        3-1      12.68 /_  109.1    1.0168
L2766726 ........... 2       7.0892 /_ -161.9   0.98467    12.470
P901912 ............ 2       7.3742 /_ -166.3    1.0243    12.470
L3195365 ........... 2       7.3742 /_ -166.3    1.0243    12.470
M1108381 ........... 1       6.8716 /_  -40.4   0.95445    12.470        1-2     12.131 /_  -10.5   0.97281
   -                 2       7.0646 /_ -161.5   0.98126    12.470        2-3     12.366 /_ -128.9   0.99169
   -                 3       7.4535 /_   81.8    1.0353    12.470        3-1     12.544 /_  109.4    1.0059
L3254237 ........... 1       6.8704 /_  -40.4   0.95429    12.470        1-2     12.129 /_  -10.5   0.97268
   -                 2       7.0638 /_ -161.5   0.98114    12.470        2-3     12.365 /_ -128.9   0.99159
   -                 3       7.4529 /_   81.8    1.0352    12.470        3-1     12.542 /_  109.4    1.0058
L2804262 ........... 1       7.2998 /_  -44.7    1.0139    12.470
L2841639 ........... 1       7.2974 /_  -44.8    1.0136    12.470
N1230123 ........... 2       7.0713 /_ -161.5   0.98218    12.470
L2708744 ........... 2       7.0696 /_ -161.5   0.98196    12.470
M1069519 ........... 1       7.2349 /_  -43.1    1.0049    12.470        1-2     12.747 /_  -13.9    1.0222
   -                 2       7.3372 /_ -165.1    1.0191    12.470        2-3     12.499 /_ -131.9    1.0023
   -                 3       7.5176 /_   80.3    1.0442    12.470        3-1      12.99 /_  108.0    1.0417
P901927 ............ 2       7.3372 /_ -165.1    1.0191    12.470
L2897790 ........... 3       7.5219 /_   80.3    1.0448    12.470
L2935566 ........... 3       7.5218 /_   80.3    1.0448    12.470
L3216337 ........... 1       7.2808 /_  -44.8    1.0113    12.470
P901931 ............ 3       7.5221 /_   80.3    1.0448    12.470
M1069548 ........... 3       7.5221 /_   80.3    1.0448    12.470
M1010013 ........... 1       7.1078 /_  -45.1   0.98726    12.470
L3120503 ........... 1       7.1078 /_  -45.1   0.98725    12.470
M1089145 ........... 1        7.036 /_  -39.6   0.97728    12.470        1-2     12.208 /_   -9.8   0.97901
   -                 2       7.0329 /_ -160.0   0.97685    12.470        2-3     12.362 /_ -128.8   0.99137
   -                 3       7.3153 /_   81.1    1.0161    12.470        3-1     12.468 /_  110.1   0.99986
L3215385 ........... 1       7.0359 /_  -39.6   0.97727    12.470        1-2     12.208 /_   -9.8   0.97899
   -                 2       7.0328 /_ -160.0   0.97684    12.470        2-3     12.362 /_ -128.8   0.99136
   -                 3       7.3152 /_   81.1    1.0161    12.470        3-1     12.468 /_  110.1   0.99985
M1026852 ........... 1       7.2945 /_  -44.8    1.0132    12.470        1-2     12.827 /_  -15.6    1.0286
   -                 2       7.3751 /_ -166.7    1.0244    12.470        2-3     12.403 /_ -133.4   0.99459
   -                 3       7.4444 /_   79.7     1.034    12.470        3-1     13.039 /_  107.1    1.0456
M1069420 ........... 1       7.3017 /_  -44.3    1.0142    12.470        1-2     12.745 /_  -15.7    1.0221
   -                 2       7.2409 /_ -166.8    1.0057    12.470        2-3      12.25 /_ -133.6   0.98232
   -                 3       7.3523 /_   79.1    1.0212    12.470        3-1     12.904 /_  107.3    1.0348
L3157708 ........... 3       7.4308 /_   79.7    1.0321    12.470
N1137991 ........... 3       7.4307 /_   79.7    1.0321    12.470
M1108413 ........... 1       6.8764 /_  -40.4   0.95512    12.470
M1108460 ........... 1        6.874 /_  -40.5   0.95478    12.470
P827532 ............ 1       7.2611 /_  -40.8    1.0086    12.470
M1047326 ........... 1       7.2611 /_  -40.8    1.0086    12.470
E182732 ............ 1       7.2507 /_  -44.5    1.0071    12.470        1-2     12.776 /_  -15.1    1.0246
   -                 2       7.3783 /_ -166.2    1.0248    12.470        2-3     12.363 /_ -133.3   0.99142
   -                 3        7.362 /_   79.8    1.0226    12.470        3-1      12.92 /_  107.4    1.0361
M1026760 ........... 1       7.2498 /_  -44.5     1.007    12.470        1-2     12.775 /_  -15.1    1.0245
   -                 2       7.3782 /_ -166.2    1.0248    12.470        2-3     12.362 /_ -133.3   0.99138
   -                 3       7.3615 /_   79.8    1.0225    12.470        3-1     12.919 /_  107.4     1.036
L3048205 ........... 3        7.331 /_   81.5    1.0183    12.470
M1108361 ........... 3       7.3179 /_   81.4    1.0164    12.470
M3036169 ........... 1       7.1629 /_  -44.7   0.99491    12.470
L2673317 ........... 1       7.1628 /_  -44.7    0.9949    12.470
L3178981 ........... 2       7.2591 /_ -161.5    1.0083    12.470
M1047368 ........... 2       7.2472 /_ -161.6    1.0066    12.470
N1136354 ........... 1       7.2334 /_  -43.1    1.0047    12.470        1-2     12.746 /_  -13.9    1.0221
   -                 2       7.3336 /_ -165.1    1.0186    12.470        2-3     12.496 /_ -131.9    1.0021
   -                 3       7.5203 /_   80.3    1.0445    12.470        3-1      12.99 /_  108.0    1.0417
L2879794 ........... 1       7.1688 /_  -38.6   0.99573    12.470
M1142811 ........... 1       7.1685 /_  -38.6   0.99569    12.470
M1069565 ........... 2       7.2965 /_ -165.2    1.0135    12.470
L2785536 ........... 2       7.2963 /_ -165.2    1.0134    12.470
L3104114 ........... 2       7.2522 /_ -167.1    1.0073    12.470
M1009824 ........... 2        7.249 /_ -167.1    1.0069    12.470
L2745848 ........... 1       7.3181 /_  -44.4    1.0165    12.470        1-2     12.796 /_  -15.5    1.0261
   -                 2        7.301 /_ -166.5    1.0141    12.470        2-3     12.316 /_ -133.4   0.98769
   -                 3       7.3718 /_   79.3    1.0239    12.470        3-1     12.952 /_  107.4    1.0386
L2673308 ........... 1       7.3171 /_  -44.4    1.0163    12.470        1-2     12.793 /_  -15.5    1.0259
   -                 2       7.2976 /_ -166.5    1.0136    12.470        2-3     12.313 /_ -133.4   0.98739
   -                 3       7.3709 /_   79.3    1.0238    12.470        3-1     12.949 /_  107.4    1.0384
L2991939 ........... 1       7.3152 /_  -44.4    1.0161    12.470        1-2     12.788 /_  -15.5    1.0255
   -                 2       7.2913 /_ -166.6    1.0127    12.470        2-3     12.306 /_ -133.4   0.98683
   -                 3       7.3689 /_   79.3    1.0235    12.470        3-1     12.944 /_  107.3     1.038
L2916606 ........... 3       7.3505 /_   81.5     1.021    12.470
L2822864 ........... 3       7.3504 /_   81.5     1.021    12.470
M1142851 ........... 1       7.1578 /_  -38.5    0.9942    12.470        1-2     12.486 /_   -8.5    1.0013
   -                 2       7.2336 /_ -158.9    1.0047    12.470        2-3     12.636 /_ -127.6    1.0133
   -                 3       7.4682 /_   82.6    1.0373    12.470        3-1     12.739 /_  111.4    1.0215
196-31070 .......... 1       7.1558 /_  -38.5   0.99393    12.470        1-2     12.484 /_   -8.5    1.0011
   -                 2       7.2325 /_ -158.9    1.0046    12.470        2-3     12.634 /_ -127.6    1.0132
   -                 3        7.468 /_   82.6    1.0373    12.470        3-1     12.737 /_  111.4    1.0214
M1209822 ........... 3        7.455 /_   84.9    1.0355    12.470
M1209823 ........... 3       7.4518 /_   84.9     1.035    12.470
M1069550 ........... 2       7.3008 /_ -165.2    1.0141    12.470
M1069551 ........... 2       7.3004 /_ -165.2     1.014    12.470
L3141397 ........... 2       7.1496 /_ -166.9   0.99306    12.470
L3649299 ........... 1       7.3322 /_  -44.6    1.0184    12.470
M3772794 ........... 1       7.3321 /_  -44.6    1.0184    12.470
P895106 ............ 2       7.1187 /_ -160.9   0.98877    12.470
L3048887 ........... 2       7.1182 /_ -160.9    0.9887    12.470
M1047824 ........... 2       7.1237 /_ -167.0   0.98947    12.470
M1047834 ........... 2       7.1193 /_ -167.0   0.98885    12.470
M1069350 ........... 1       7.2987 /_  -44.3    1.0138    12.470        1-2      12.72 /_  -15.8      1.02
   -                 2       7.2078 /_ -166.8    1.0011    12.470        2-3     12.211 /_ -133.7   0.97927
   -                 3       7.3314 /_   78.9    1.0183    12.470        3-1      12.87 /_  107.2    1.0321
N1144668 ........... 1       7.2989 /_  -44.3    1.0138    12.470        1-2      12.72 /_  -15.8      1.02
   -                 2       7.2077 /_ -166.8    1.0011    12.470        2-3     12.211 /_ -133.7   0.97924
   -                 3       7.3306 /_   78.9    1.0182    12.470        3-1      12.87 /_  107.2     1.032
L2879072 ........... 2       7.1629 /_ -167.0   0.99491    12.470
M1047441 ........... 2       7.1485 /_ -167.0   0.99291    12.470
M1108274 ........... 2        7.437 /_ -160.4     1.033    12.470
M1108269 ........... 2       7.4369 /_ -160.4     1.033    12.470
L3235244 ........... 1       7.2902 /_  -44.3    1.0126    12.470
M1069398 ........... 1       7.2898 /_  -44.3    1.0125    12.470
N1147862 ........... 1       7.2299 /_  -44.9    1.0042    12.470
L2685805 ........... 1       7.2298 /_  -44.9    1.0042    12.470
M1069247 ........... 1       7.2991 /_  -44.3    1.0138    12.470
M1069248 ........... 1       7.2989 /_  -44.3    1.0138    12.470
L2786273 ........... 2       7.4363 /_ -160.4    1.0329    12.470
M1108278 ........... 2       7.4358 /_ -160.4    1.0328    12.470
L3254238 ........... 1        7.227 /_  -40.7    1.0038    12.470        1-2     12.533 /_  -11.3    1.0051
   -                 2       7.1766 /_ -161.7   0.99681    12.470        2-3     12.529 /_ -130.3    1.0047
   -                 3       7.4114 /_   79.9    1.0294    12.470        3-1      12.72 /_  109.2    1.0201
M1047303 ........... 1        7.222 /_  -40.7    1.0031    12.470        1-2     12.523 /_  -11.3    1.0043
   -                 2       7.1689 /_ -161.7   0.99575    12.470        2-3     12.521 /_ -130.3    1.0041
   -                 3       7.4098 /_   79.9    1.0292    12.470        3-1     12.715 /_  109.2    1.0196
M1047633 ........... 3       7.4679 /_   79.6    1.0373    12.470
L2897554 ........... 3       7.4674 /_   79.6    1.0372    12.470
M1069627 ........... 2       7.2481 /_ -165.3    1.0067    12.470
L2897791 ........... 2       7.2466 /_ -165.3    1.0065    12.470
M1089097 ........... 2       7.4409 /_ -160.4    1.0335    12.470
M1108270 ........... 2       7.4399 /_ -160.4    1.0334    12.470
N1142101 ........... 1       6.8234 /_  -41.0   0.94776    12.470
L2936214 ........... 1       6.8234 /_  -41.0   0.94775    12.470
L3066810 ........... 3       7.3574 /_   79.2    1.0219    12.470
L2897769 ........... 3       7.3563 /_   79.2    1.0218    12.470
M1209758 ........... 2       7.3855 /_ -156.5    1.0258    12.470
M1209753 ........... 2        7.385 /_ -156.5    1.0258    12.470
M1047528 ........... 1       7.4124 /_  -44.3    1.0296    12.470        1-2     12.982 /_  -15.3    1.0411
   -                 2       7.4334 /_ -166.3    1.0325    12.470        2-3     12.509 /_ -133.2    1.0031
   -                 3       7.4818 /_   79.7    1.0392    12.470        3-1     13.153 /_  107.5    1.0547
L2858166 ........... 1       7.4119 /_  -44.3    1.0295    12.470        1-2     12.982 /_  -15.3     1.041
   -                 2       7.4329 /_ -166.3    1.0324    12.470        2-3     12.508 /_ -133.2    1.0031
   -                 3       7.4816 /_   79.7    1.0392    12.470        3-1     13.152 /_  107.5    1.0547
M1142843 ........... 1       7.1765 /_  -38.4    0.9968    12.470        1-2     12.509 /_   -8.4    1.0032
   -                 2       7.2444 /_ -158.7    1.0062    12.470        2-3     12.653 /_ -127.5    1.0147
   -                 3       7.4696 /_   82.7    1.0375    12.470        3-1     12.752 /_  111.5    1.0226
L3081380 ........... 1       7.1762 /_  -38.4   0.99675    12.470        1-2     12.506 /_   -8.4    1.0029
   -                 2       7.2406 /_ -158.7    1.0057    12.470        2-3     12.649 /_ -127.5    1.0144
   -                 3       7.4666 /_   82.6    1.0371    12.470        3-1     12.747 /_  111.5    1.0222
L2804272 ........... 2          7.3 /_ -165.2     1.014    12.470
L2841641 ........... 2       7.2999 /_ -165.2    1.0139    12.470
M1069393 ........... 2       7.1872 /_ -166.9   0.99828    12.470
M1069408 ........... 2        7.182 /_ -166.9   0.99757    12.470
N1142104 ........... 1       6.7945 /_  -41.3   0.94374    12.470        1-2     12.053 /_  -11.3   0.96655
   -                 2       7.0439 /_ -162.4   0.97837    12.470        2-3     12.312 /_ -129.5   0.98736
   -                 3       7.4582 /_   81.4    1.0359    12.470        3-1     12.511 /_  108.6    1.0033
M1108500 ........... 1       6.7893 /_  -41.3   0.94302    12.470        1-2     12.047 /_  -11.3   0.96606
   -                 2       7.0413 /_ -162.5   0.97802    12.470        2-3     12.308 /_ -129.5   0.98699
   -                 3       7.4581 /_   81.4    1.0359    12.470        3-1     12.508 /_  108.6     1.003
L3216348 ........... 1       7.1308 /_  -44.8   0.99045    12.470
L2841627 ........... 1       7.1292 /_  -44.8   0.99022    12.470
L2916599 ........... 1       7.2856 /_  -44.8     1.012    12.470
M1047447 ........... 2       7.1331 /_ -167.0   0.99077    12.470
L2954349 ........... 2        7.133 /_ -167.0   0.99076    12.470
L3235246 ........... 2       7.1237 /_ -167.0   0.98946    12.470
M1125911 ........... 2        7.198 /_ -159.1   0.99978    12.470
L2711224 ........... 2       7.1966 /_ -159.1   0.99959    12.470
N1147863 ........... 3       7.4286 /_   79.6    1.0318    12.470
L3122817 ........... 3       7.4286 /_   79.6    1.0318    12.470
M1186061 ........... 1       7.3646 /_  -36.4    1.0229    12.470        1-2     12.777 /_   -6.4    1.0246
   -                 2       7.3872 /_ -156.4    1.0261    12.470        2-3     12.854 /_ -125.8    1.0308
   -                 3       7.5077 /_   84.2    1.0428    12.470        3-1     12.923 /_  113.6    1.0363
L2861223 ........... 2       7.3871 /_ -156.4     1.026    12.470
M1069130 ........... 1       7.3103 /_  -40.7    1.0154    12.470
L3085396 ........... 1         7.31 /_  -40.7    1.0153    12.470
E182730 ............ 1        7.261 /_  -44.5    1.0085    12.470
N1142109 ........... 1       7.2609 /_  -44.5    1.0085    12.470
M1069417 ........... 1       7.2976 /_  -44.3    1.0136    12.470        1-2     12.732 /_  -15.7     1.021
   -                 2       7.2237 /_ -166.8    1.0034    12.470        2-3     12.231 /_ -133.6   0.98081
   -                 3       7.3469 /_   79.0    1.0205    12.470        3-1      12.89 /_  107.2    1.0337
N1138597 ........... 1       7.2972 /_  -44.3    1.0136    12.470        1-2     12.731 /_  -15.7    1.0209
   -                 2       7.2223 /_ -166.8    1.0032    12.470        2-3     12.229 /_ -133.6   0.98069
   -                 3       7.3464 /_   79.0    1.0204    12.470        3-1     12.889 /_  107.2    1.0336
M1026987 ........... 2       7.1428 /_ -166.9   0.99212    12.470
M1026990 ........... 2       7.1413 /_ -166.9   0.99191    12.470
M1142832 ........... 1       7.1754 /_  -38.5   0.99665    12.470        1-2     12.498 /_   -8.5    1.0022
   -                 2       7.2326 /_ -158.8    1.0046    12.470        2-3     12.641 /_ -127.6    1.0137
   -                 3       7.4606 /_   82.5    1.0363    12.470        3-1     12.738 /_  111.4    1.0215
L3160865 ........... 1       7.1751 /_  -38.5    0.9966    12.470        1-2     12.496 /_   -8.5    1.0021
   -                 2       7.2304 /_ -158.8    1.0043    12.470        2-3     12.639 /_ -127.7    1.0135
   -                 3        7.459 /_   82.5     1.036    12.470        3-1     12.735 /_  111.3    1.0213
L2673323 ........... 3       7.4184 /_   79.6    1.0304    12.470
M1009809 ........... 3       7.4182 /_   79.6    1.0304    12.470
L2822869 ........... 1       7.3228 /_  -44.4    1.0171    12.470        1-2     12.854 /_  -15.2    1.0308
   -                 2       7.3845 /_ -166.3    1.0257    12.470        2-3     12.405 /_ -133.2   0.99481
   -                 3       7.4038 /_   79.7    1.0284    12.470        3-1      13.01 /_  107.5    1.0433
M1026808 ........... 1       7.3134 /_  -44.4    1.0158    12.470        1-2     12.844 /_  -15.2      1.03
   -                 2       7.3836 /_ -166.2    1.0256    12.470        2-3     12.399 /_ -133.2   0.99433
   -                 3       7.3977 /_   79.7    1.0275    12.470        3-1     12.997 /_  107.5    1.0423
M1047825 ........... 2       7.1094 /_ -167.0   0.98748    12.470
M1069731 ........... 2       7.1078 /_ -167.0   0.98726    12.470
N1140520 ........... 3       7.3977 /_   79.7    1.0275    12.470
L2729410 ........... 3       7.3977 /_   79.7    1.0275    12.470
L3178978 ........... 1       7.1534 /_  -44.7   0.99359    12.470
M1069384 ........... 1       7.2916 /_  -44.3    1.0128    12.470
L3066805 ........... 1       7.2915 /_  -44.3    1.0128    12.470
M4362181 ........... 2       7.1145 /_ -167.1   0.98818    12.470
M1047319 ........... 3       7.4047 /_   79.9    1.0285    12.470
M1047318 ........... 3       7.4043 /_   79.9    1.0284    12.470
L3216358 ........... 1       7.2731 /_  -44.8    1.0102    12.470
M1026826 ........... 1       7.2718 /_  -44.8      1.01    12.470
M1108276 ........... 2       7.4366 /_ -160.4    1.0329    12.470
M1089198 ........... 1       7.3359 /_  -42.3    1.0189    12.470        1-2     12.863 /_  -13.0    1.0315
   -                 2       7.4027 /_ -163.9    1.0282    12.470        2-3     12.596 /_ -131.3    1.0101
   -                 3       7.5068 /_   80.8    1.0427    12.470        3-1     13.053 /_  108.9    1.0467
M1089201 ........... 1       7.3193 /_  -42.5    1.0166    12.470        1-2     12.843 /_  -13.1    1.0299
   -                 2       7.3926 /_ -164.1    1.0268    12.470        2-3     12.581 /_ -131.4    1.0089
   -                 3       7.5075 /_   80.7    1.0428    12.470        3-1     13.042 /_  108.7    1.0459
M1047763 ........... 1       7.3129 /_  -44.1    1.0157    12.470        1-2     12.724 /_  -15.7    1.0204
   -                 2       7.1824 /_ -166.8   0.99762    12.470        2-3     12.287 /_ -132.8   0.98529
   -                 3        7.507 /_   79.6    1.0427    12.470        3-1     13.069 /_  107.4    1.0481
N1136027 ........... 1       7.3126 /_  -44.1    1.0157    12.470
L3101827 ........... 3       7.5014 /_   81.2    1.0419    12.470
M1108540 ........... 3       7.4984 /_   81.2    1.0415    12.470
M1026335 ........... 1       7.1756 /_  -40.7   0.99667    12.470
L2804259 ........... 1       7.1755 /_  -40.7   0.99665    12.470
N1136357 ........... 3        7.522 /_   80.3    1.0448    12.470
M1047513 ........... 1       7.3605 /_  -44.4    1.0224    12.470        1-2     12.901 /_  -15.2    1.0346
   -                 2       7.3964 /_ -166.3    1.0273    12.470        2-3     12.438 /_ -133.2   0.99744
   -                 3       7.4308 /_   79.7    1.0321    12.470        3-1     13.063 /_  107.5    1.0476
M1047507 ........... 1       7.3469 /_  -44.4    1.0205    12.470        1-2      12.88 /_  -15.2    1.0329
   -                 2       7.3865 /_ -166.3     1.026    12.470        2-3      12.42 /_ -133.2     0.996
   -                 3       7.4192 /_   79.7    1.0305    12.470        3-1     13.041 /_  107.5    1.0458
M1142863 ........... 1       7.1375 /_  -38.7   0.99138    12.470        1-2     12.461 /_   -8.7   0.99927
   -                 2       7.2218 /_ -159.1    1.0031    12.470        2-3     12.617 /_ -127.7    1.0118
   -                 3       7.4666 /_   82.5    1.0371    12.470        3-1     12.724 /_  111.2    1.0204
N1141480 ........... 3       7.4666 /_   82.5    1.0371    12.470
M1125916 ........... 2       7.1993 /_ -159.1   0.99996    12.470
...